<?xml version="1.0" encoding="UTF-8"?>

<!-- generated on 11/23/21 12:05:05 by Eclipse SUMO netedit Version 1.6.0
<configuration xmlns:xsi="http://www.w3.org/2001/XMLSchema-instance" xsi:noNamespaceSchemaLocation="http://sumo.dlr.de/xsd/netconvertConfiguration.xsd">

    <input>
        <sumo-net-file value="C:\Users\744\Desktop\atsc_deeprl\sumo_file\isolate\isolate.net.xml"/>
    </input>

    <output>
        <output-file value="C:\Users\744\Desktop\atsc_deeprl\sumo_file\isolate\isolate.net.xml"/>
    </output>

    <processing>
        <geometry.min-radius.fix.railways value="false"/>
        <geometry.max-grade.fix value="false"/>
        <offset.disable-normalization value="true"/>
        <lefthand value="false"/>
    </processing>

    <junctions>
        <no-internal-links value="false"/>
        <no-turnarounds value="true"/>
        <junctions.corner-detail value="5"/>
        <junctions.limit-turn-speed value="5.5"/>
        <rectangular-lane-cut value="false"/>
    </junctions>

    <pedestrian>
        <walkingareas value="true"/>
    </pedestrian>

    <report>
        <aggregate-warnings value="5"/>
    </report>

</configuration>
-->

<net version="1.6" junctionCornerDetail="5" walkingareas="true" limitTurnSpeed="5.50" xmlns:xsi="http://www.w3.org/2001/XMLSchema-instance" xsi:noNamespaceSchemaLocation="http://sumo.dlr.de/xsd/net_file.xsd">

    <location netOffset="0.00,0.00" convBoundary="-100.00,-100.00,100.00,100.00" origBoundary="-10000000000.00,-10000000000.00,10000000000.00,10000000000.00" projParameter="!"/>

    <edge id=":center_0" function="internal">
        <lane id=":center_0_0" index="0" disallow="pedestrian" speed="6.51" length="4.75" shape="-8.00,13.60 -8.35,11.15 -9.40,9.40 -9.60,9.28"/>
    </edge>
    <edge id=":center_1" function="internal">
        <lane id=":center_1_0" index="0" disallow="pedestrian" speed="13.89" length="27.20" shape="-8.00,13.60 -8.00,-13.60"/>
        <lane id=":center_1_1" index="1" disallow="pedestrian" speed="13.89" length="27.20" shape="-4.80,13.60 -4.80,-13.60"/>
    </edge>
    <edge id=":center_3" function="internal">
        <lane id=":center_3_0" index="0" disallow="pedestrian" speed="10.36" length="13.42" shape="-1.60,13.60 -0.65,6.95 2.20,2.20 3.20,1.60"/>
    </edge>
    <edge id=":center_16" function="internal">
        <lane id=":center_16_0" index="0" disallow="pedestrian" speed="6.51" length="4.28" shape="-9.60,9.28 -11.15,8.35 -13.60,8.00"/>
    </edge>
    <edge id=":center_17" function="internal">
        <lane id=":center_17_0" index="0" disallow="pedestrian" speed="10.36" length="11.09" shape="3.20,1.60 6.95,-0.65 13.60,-1.60"/>
    </edge>
    <edge id=":center_4" function="internal">
        <lane id=":center_4_0" index="0" disallow="pedestrian" speed="6.51" length="4.75" shape="13.60,8.00 11.15,8.35 9.40,9.40 9.28,9.60"/>
    </edge>
    <edge id=":center_5" function="internal">
        <lane id=":center_5_0" index="0" disallow="pedestrian" speed="13.89" length="27.20" shape="13.60,8.00 -13.60,8.00"/>
        <lane id=":center_5_1" index="1" disallow="pedestrian" speed="13.89" length="27.20" shape="13.60,4.80 -13.60,4.80"/>
    </edge>
    <edge id=":center_7" function="internal">
        <lane id=":center_7_0" index="0" disallow="pedestrian" speed="10.36" length="13.42" shape="13.60,1.60 6.95,0.65 2.20,-2.20 1.60,-3.20"/>
    </edge>
    <edge id=":center_18" function="internal">
        <lane id=":center_18_0" index="0" disallow="pedestrian" speed="6.51" length="4.28" shape="9.28,9.60 8.35,11.15 8.00,13.60"/>
    </edge>
    <edge id=":center_19" function="internal">
        <lane id=":center_19_0" index="0" disallow="pedestrian" speed="10.36" length="11.09" shape="1.60,-3.20 -0.65,-6.95 -1.60,-13.60"/>
    </edge>
    <edge id=":center_8" function="internal">
        <lane id=":center_8_0" index="0" disallow="pedestrian" speed="6.51" length="4.75" shape="8.00,-13.60 8.35,-11.15 9.40,-9.40 9.60,-9.28"/>
    </edge>
    <edge id=":center_9" function="internal">
        <lane id=":center_9_0" index="0" disallow="pedestrian" speed="13.89" length="27.20" shape="8.00,-13.60 8.00,13.60"/>
        <lane id=":center_9_1" index="1" disallow="pedestrian" speed="13.89" length="27.20" shape="4.80,-13.60 4.80,13.60"/>
    </edge>
    <edge id=":center_11" function="internal">
        <lane id=":center_11_0" index="0" disallow="pedestrian" speed="10.36" length="13.42" shape="1.60,-13.60 0.65,-6.95 -2.20,-2.20 -3.20,-1.60"/>
    </edge>
    <edge id=":center_20" function="internal">
        <lane id=":center_20_0" index="0" disallow="pedestrian" speed="6.51" length="4.28" shape="9.60,-9.28 11.15,-8.35 13.60,-8.00"/>
    </edge>
    <edge id=":center_21" function="internal">
        <lane id=":center_21_0" index="0" disallow="pedestrian" speed="10.36" length="11.09" shape="-3.20,-1.60 -6.95,0.65 -13.60,1.60"/>
    </edge>
    <edge id=":center_12" function="internal">
        <lane id=":center_12_0" index="0" disallow="pedestrian" speed="6.51" length="4.75" shape="-13.60,-8.00 -11.15,-8.35 -9.40,-9.40 -9.28,-9.60"/>
    </edge>
    <edge id=":center_13" function="internal">
        <lane id=":center_13_0" index="0" disallow="pedestrian" speed="13.89" length="27.20" shape="-13.60,-8.00 13.60,-8.00"/>
        <lane id=":center_13_1" index="1" disallow="pedestrian" speed="13.89" length="27.20" shape="-13.60,-4.80 13.60,-4.80"/>
    </edge>
    <edge id=":center_15" function="internal">
        <lane id=":center_15_0" index="0" disallow="pedestrian" speed="10.36" length="13.42" shape="-13.60,-1.60 -6.95,-0.65 -2.20,2.20 -1.60,3.20"/>
    </edge>
    <edge id=":center_22" function="internal">
        <lane id=":center_22_0" index="0" disallow="pedestrian" speed="6.51" length="4.28" shape="-9.28,-9.60 -8.35,-11.15 -8.00,-13.60"/>
    </edge>
    <edge id=":center_23" function="internal">
        <lane id=":center_23_0" index="0" disallow="pedestrian" speed="10.36" length="11.09" shape="-1.60,3.20 0.65,6.95 1.60,13.60"/>
    </edge>
    <edge id=":center_c0" function="crossing" crossingEdges="c2n n2c">
        <lane id=":center_c0_0" index="0" allow="pedestrian" speed="1.00" length="19.20" width="4.00" shape="9.60,11.60 -9.60,11.60"/>
    </edge>
    <edge id=":center_c1" function="crossing" crossingEdges="c2e e2c">
        <lane id=":center_c1_0" index="0" allow="pedestrian" speed="1.00" length="19.20" width="4.00" shape="11.60,-9.60 11.60,9.60"/>
    </edge>
    <edge id=":center_c2" function="crossing" crossingEdges="c2s s2c">
        <lane id=":center_c2_0" index="0" allow="pedestrian" speed="1.00" length="19.20" width="4.00" shape="-9.60,-11.60 9.60,-11.60"/>
    </edge>
    <edge id=":center_c3" function="crossing" crossingEdges="c2w w2c">
        <lane id=":center_c3_0" index="0" allow="pedestrian" speed="1.00" length="19.20" width="4.00" shape="-11.60,9.60 -11.60,-9.60"/>
    </edge>
    <edge id=":center_w0" function="walkingarea">
        <lane id=":center_w0_0" index="0" allow="pedestrian" speed="1.00" length="3.30" width="4.00" shape="-13.60,9.60 -13.60,11.60 -11.60,13.60 -9.60,13.60 -9.71,12.38 -10.04,11.38 -10.60,10.60 -11.38,10.04 -12.38,9.71"/>
    </edge>
    <edge id=":center_w1" function="walkingarea">
        <lane id=":center_w1_0" index="0" allow="pedestrian" speed="1.00" length="3.30" width="4.00" shape="9.60,13.60 11.60,13.60 13.60,11.60 13.60,9.60 12.38,9.71 11.38,10.04 10.60,10.60 10.04,11.38 9.71,12.38"/>
    </edge>
    <edge id=":center_w2" function="walkingarea">
        <lane id=":center_w2_0" index="0" allow="pedestrian" speed="1.00" length="3.30" width="4.00" shape="13.60,-9.60 13.60,-11.60 11.60,-13.60 9.60,-13.60 9.71,-12.38 10.04,-11.38 10.60,-10.60 11.38,-10.04 12.38,-9.71"/>
    </edge>
    <edge id=":center_w3" function="walkingarea">
        <lane id=":center_w3_0" index="0" allow="pedestrian" speed="1.00" length="3.30" width="4.00" shape="-9.60,-13.60 -11.60,-13.60 -13.60,-11.60 -13.60,-9.60 -12.38,-9.71 -11.38,-10.04 -10.60,-10.60 -10.04,-11.38 -9.71,-12.38"/>
    </edge>
    <edge id=":east_w0" function="walkingarea">
        <lane id=":east_w0_0" index="0" allow="pedestrian" speed="1.00" length="21.20" width="2.00" shape="100.00,9.60 100.00,11.60 100.00,-11.60 100.00,-9.60"/>
    </edge>
    <edge id=":north_w0" function="walkingarea">
        <lane id=":north_w0_0" index="0" allow="pedestrian" speed="1.00" length="21.20" width="2.00" shape="-9.60,100.00 -11.60,100.00 11.60,100.00 9.60,100.00"/>
    </edge>
    <edge id=":south_w0" function="walkingarea">
        <lane id=":south_w0_0" index="0" allow="pedestrian" speed="1.00" length="21.20" width="2.00" shape="9.60,-100.00 11.60,-100.00 -11.60,-100.00 -9.60,-100.00"/>
    </edge>
    <edge id=":west_w0" function="walkingarea">
        <lane id=":west_w0_0" index="0" allow="pedestrian" speed="1.00" length="21.20" width="2.00" shape="-100.00,-9.60 -100.00,-11.60 -100.00,11.60 -100.00,9.60"/>
    </edge>

    <edge id="c2e" from="center" to="east" priority="-1">
        <lane id="c2e_0" index="0" allow="pedestrian" speed="13.89" length="86.40" width="2.00" shape="13.60,-10.60 100.00,-10.60"/>
        <lane id="c2e_1" index="1" disallow="pedestrian" speed="13.89" length="86.40" shape="13.60,-8.00 100.00,-8.00"/>
        <lane id="c2e_2" index="2" disallow="pedestrian" speed="13.89" length="86.40" shape="13.60,-4.80 100.00,-4.80"/>
        <lane id="c2e_3" index="3" disallow="pedestrian" speed="13.89" length="86.40" shape="13.60,-1.60 100.00,-1.60"/>
    </edge>
    <edge id="c2n" from="center" to="north" priority="-1">
        <lane id="c2n_0" index="0" allow="pedestrian" speed="13.89" length="86.40" width="2.00" shape="10.60,13.60 10.60,100.00"/>
        <lane id="c2n_1" index="1" disallow="pedestrian" speed="13.89" length="86.40" shape="8.00,13.60 8.00,100.00"/>
        <lane id="c2n_2" index="2" disallow="pedestrian" speed="13.89" length="86.40" shape="4.80,13.60 4.80,100.00"/>
        <lane id="c2n_3" index="3" disallow="pedestrian" speed="13.89" length="86.40" shape="1.60,13.60 1.60,100.00"/>
    </edge>
    <edge id="c2s" from="center" to="south" priority="-1">
        <lane id="c2s_0" index="0" allow="pedestrian" speed="13.89" length="86.40" width="2.00" shape="-10.60,-13.60 -10.60,-100.00"/>
        <lane id="c2s_1" index="1" disallow="pedestrian" speed="13.89" length="86.40" shape="-8.00,-13.60 -8.00,-100.00"/>
        <lane id="c2s_2" index="2" disallow="pedestrian" speed="13.89" length="86.40" shape="-4.80,-13.60 -4.80,-100.00"/>
        <lane id="c2s_3" index="3" disallow="pedestrian" speed="13.89" length="86.40" shape="-1.60,-13.60 -1.60,-100.00"/>
    </edge>
    <edge id="c2w" from="center" to="west" priority="-1">
        <lane id="c2w_0" index="0" allow="pedestrian" speed="13.89" length="86.40" width="2.00" shape="-13.60,10.60 -100.00,10.60"/>
        <lane id="c2w_1" index="1" disallow="pedestrian" speed="13.89" length="86.40" shape="-13.60,8.00 -100.00,8.00"/>
        <lane id="c2w_2" index="2" disallow="pedestrian" speed="13.89" length="86.40" shape="-13.60,4.80 -100.00,4.80"/>
        <lane id="c2w_3" index="3" disallow="pedestrian" speed="13.89" length="86.40" shape="-13.60,1.60 -100.00,1.60"/>
    </edge>
    <edge id="e2c" from="east" to="center" priority="-1">
        <lane id="e2c_0" index="0" allow="pedestrian" speed="13.89" length="86.40" width="2.00" shape="100.00,10.60 13.60,10.60"/>
        <lane id="e2c_1" index="1" disallow="pedestrian" speed="13.89" length="86.40" shape="100.00,8.00 13.60,8.00"/>
        <lane id="e2c_2" index="2" disallow="pedestrian" speed="13.89" length="86.40" shape="100.00,4.80 13.60,4.80"/>
        <lane id="e2c_3" index="3" disallow="pedestrian" speed="13.89" length="86.40" shape="100.00,1.60 13.60,1.60"/>
    </edge>
    <edge id="n2c" from="north" to="center" priority="-1">
        <lane id="n2c_0" index="0" allow="pedestrian" speed="13.89" length="86.40" width="2.00" shape="-10.60,100.00 -10.60,13.60"/>
        <lane id="n2c_1" index="1" disallow="pedestrian" speed="13.89" length="86.40" shape="-8.00,100.00 -8.00,13.60"/>
        <lane id="n2c_2" index="2" disallow="pedestrian" speed="13.89" length="86.40" shape="-4.80,100.00 -4.80,13.60"/>
        <lane id="n2c_3" index="3" disallow="pedestrian" speed="13.89" length="86.40" shape="-1.60,100.00 -1.60,13.60"/>
    </edge>
    <edge id="s2c" from="south" to="center" priority="-1">
        <lane id="s2c_0" index="0" allow="pedestrian" speed="13.89" length="86.40" width="2.00" shape="10.60,-100.00 10.60,-13.60"/>
        <lane id="s2c_1" index="1" disallow="pedestrian" speed="13.89" length="86.40" shape="8.00,-100.00 8.00,-13.60"/>
        <lane id="s2c_2" index="2" disallow="pedestrian" speed="13.89" length="86.40" shape="4.80,-100.00 4.80,-13.60"/>
        <lane id="s2c_3" index="3" disallow="pedestrian" speed="13.89" length="86.40" shape="1.60,-100.00 1.60,-13.60"/>
    </edge>
    <edge id="w2c" from="west" to="center" priority="-1">
        <lane id="w2c_0" index="0" allow="pedestrian" speed="13.89" length="86.40" width="2.00" shape="-100.00,-10.60 -13.60,-10.60"/>
        <lane id="w2c_1" index="1" disallow="pedestrian" speed="13.89" length="86.40" shape="-100.00,-8.00 -13.60,-8.00"/>
        <lane id="w2c_2" index="2" disallow="pedestrian" speed="13.89" length="86.40" shape="-100.00,-4.80 -13.60,-4.80"/>
        <lane id="w2c_3" index="3" disallow="pedestrian" speed="13.89" length="86.40" shape="-100.00,-1.60 -13.60,-1.60"/>
    </edge>

    <tlLogic id="center" type="static" programID="0" offset="0">
        <phase duration="28" state="gGGgrrrrgGGgrrrrrGrG"/>
        <phase duration="5"  state="gGGgrrrrgGGgrrrrrrrr"/>
        <phase duration="3"  state="yyygrrrryyygrrrrrrrr"/>
        <phase duration="6"  state="rrrGrrrrrrrGrrrrrrrr"/>
        <phase duration="3"  state="rrryrrrrrrryrrrrrrrr"/>
        <phase duration="28" state="rrrrgGGgrrrrgGGgGrGr"/>
        <phase duration="5"  state="rrrrgGGgrrrrgGGgrrrr"/>
        <phase duration="3"  state="rrrryyygrrrryyygrrrr"/>
        <phase duration="6"  state="rrrrrrrGrrrrrrrGrrrr"/>
        <phase duration="3"  state="rrrrrrryrrrrrrryrrrr"/>
    </tlLogic>

    <junction id="center" type="traffic_light" x="0.00" y="0.00" incLanes="n2c_0 n2c_1 n2c_2 n2c_3 e2c_0 e2c_1 e2c_2 e2c_3 s2c_0 s2c_1 s2c_2 s2c_3 w2c_0 w2c_1 w2c_2 w2c_3 :center_w1_0 :center_w2_0 :center_w3_0 :center_w0_0" intLanes=":center_16_0 :center_1_0 :center_1_1 :center_17_0 :center_18_0 :center_5_0 :center_5_1 :center_19_0 :center_20_0 :center_9_0 :center_9_1 :center_21_0 :center_22_0 :center_13_0 :center_13_1 :center_23_0 :center_c0_0 :center_c1_0 :center_c2_0 :center_c3_0" shape="-11.60,13.60 11.60,13.60 11.82,12.49 12.10,12.10 12.49,11.82 12.99,11.66 13.60,11.60 13.60,-11.60 12.49,-11.82 12.10,-12.10 11.82,-12.49 11.66,-12.99 11.60,-13.60 -11.60,-13.60 -11.82,-12.49 -12.10,-12.10 -12.49,-11.82 -12.99,-11.66 -13.60,-11.60 -13.60,11.60 -12.49,11.82 -12.10,12.10 -11.82,12.49 -11.66,12.99">
        <request index="0"  response="10010000000000000000" foes="10010000000001100000" cont="1"/>
        <request index="1"  response="01011001000000000000" foes="01011111100001100000" cont="0"/>
        <request index="2"  response="01011001000000000000" foes="01011111100001100000" cont="0"/>
        <request index="3"  response="00111000011010000000" foes="00111000011011100000" cont="1"/>
        <request index="4"  response="00110000011000000000" foes="00110000011000000000" cont="1"/>
        <request index="5"  response="10100000011000001111" foes="10101000011000001111" cont="0"/>
        <request index="6"  response="10100000011000001111" foes="10101000011000001111" cont="0"/>
        <request index="7"  response="01100110111000001000" foes="01100110111000001000" cont="1"/>
        <request index="8"  response="01100000000000000000" foes="01100110000000000000" cont="1"/>
        <request index="9"  response="01010000000010010000" foes="01010110000011111000" cont="0"/>
        <request index="10" response="01010000000010010000" foes="01010110000011111000" cont="0"/>
        <request index="11" response="11001000000010000110" foes="11001110000010000110" cont="1"/>
        <request index="12" response="11000000000000000110" foes="11000000000000000110" cont="1"/>
        <request index="13" response="10100000111100000110" foes="10100000111110000110" cont="0"/>
        <request index="14" response="10100000111100000110" foes="10100000111110000110" cont="0"/>
        <request index="15" response="10010000100001101110" foes="10010000100001101110" cont="1"/>
        <request index="16" response="00000000000000000000" foes="00001000011000011111" cont="0"/>
        <request index="17" response="00000000000000000000" foes="00000110000111111000" cont="0"/>
        <request index="18" response="00000000000000000000" foes="00000001111110000110" cont="0"/>
        <request index="19" response="00000000000000000000" foes="00001111100001100001" cont="0"/>
    </junction>
    <junction id="east" type="dead_end" x="100.00" y="0.00" incLanes="c2e_0 c2e_1 c2e_2 c2e_3" intLanes="" shape="100.00,0.00 100.00,-11.60 100.00,0.00"/>
    <junction id="north" type="dead_end" x="0.00" y="100.00" incLanes="c2n_0 c2n_1 c2n_2 c2n_3" intLanes="" shape="0.00,100.00 11.60,100.00 0.00,100.00"/>
    <junction id="south" type="dead_end" x="0.00" y="-100.00" incLanes="c2s_0 c2s_1 c2s_2 c2s_3" intLanes="" shape="0.00,-100.00 -11.60,-100.00 0.00,-100.00"/>
    <junction id="west" type="dead_end" x="-100.00" y="0.00" incLanes="c2w_0 c2w_1 c2w_2 c2w_3" intLanes="" shape="-100.00,0.00 -100.00,11.60 -100.00,0.00"/>

    <junction id=":center_16_0" type="internal" x="-9.60" y="9.28" incLanes=":center_0_0" intLanes=":center_5_0 :center_5_1 :center_11_0 :center_c0_0 :center_c3_0"/>
    <junction id=":center_17_0" type="internal" x="3.20" y="1.60" incLanes=":center_3_0 s2c_1 s2c_2" intLanes=":center_5_0 :center_5_1 :center_7_0 :center_8_0 :center_9_0 :center_9_1 :center_13_0 :center_13_1 :center_15_0 :center_c0_0 :center_c1_0"/>
    <junction id=":center_18_0" type="internal" x="9.28" y="9.60" incLanes=":center_4_0" intLanes=":center_9_0 :center_9_1 :center_15_0 :center_c0_0 :center_c1_0"/>
    <junction id=":center_19_0" type="internal" x="1.60" y="-3.20" incLanes=":center_7_0 w2c_1 w2c_2" intLanes=":center_1_0 :center_1_1 :center_3_0 :center_9_0 :center_9_1 :center_11_0 :center_12_0 :center_13_0 :center_13_1 :center_c1_0 :center_c2_0"/>
    <junction id=":center_20_0" type="internal" x="9.60" y="-9.28" incLanes=":center_8_0" intLanes=":center_3_0 :center_13_0 :center_13_1 :center_c1_0 :center_c2_0"/>
    <junction id=":center_21_0" type="internal" x="-3.20" y="-1.60" incLanes=":center_11_0 n2c_1 n2c_2" intLanes=":center_0_0 :center_1_0 :center_1_1 :center_5_0 :center_5_1 :center_7_0 :center_13_0 :center_13_1 :center_15_0 :center_c2_0 :center_c3_0"/>
    <junction id=":center_22_0" type="internal" x="-9.28" y="-9.60" incLanes=":center_12_0" intLanes=":center_1_0 :center_1_1 :center_7_0 :center_c2_0 :center_c3_0"/>
    <junction id=":center_23_0" type="internal" x="-1.60" y="3.20" incLanes=":center_15_0 e2c_1 e2c_2" intLanes=":center_1_0 :center_1_1 :center_3_0 :center_4_0 :center_5_0 :center_5_1 :center_9_0 :center_9_1 :center_11_0 :center_c0_0 :center_c3_0"/>

    <connection from="e2c" to="c2n" fromLane="1" toLane="1" via=":center_4_0" tl="center" linkIndex="4" dir="r" state="o"/>
    <connection from="e2c" to="c2w" fromLane="1" toLane="1" via=":center_5_0" tl="center" linkIndex="5" dir="s" state="o"/>
    <connection from="e2c" to="c2w" fromLane="2" toLane="2" via=":center_5_1" tl="center" linkIndex="6" dir="s" state="o"/>
    <connection from="e2c" to="c2s" fromLane="3" toLane="3" via=":center_7_0" tl="center" linkIndex="7" dir="l" state="o"/>
    <connection from="n2c" to="c2w" fromLane="1" toLane="1" via=":center_0_0" tl="center" linkIndex="0" dir="r" state="o"/>
    <connection from="n2c" to="c2s" fromLane="1" toLane="1" via=":center_1_0" tl="center" linkIndex="1" dir="s" state="o"/>
    <connection from="n2c" to="c2s" fromLane="2" toLane="2" via=":center_1_1" tl="center" linkIndex="2" dir="s" state="o"/>
    <connection from="n2c" to="c2e" fromLane="3" toLane="3" via=":center_3_0" tl="center" linkIndex="3" dir="l" state="o"/>
    <connection from="s2c" to="c2e" fromLane="1" toLane="1" via=":center_8_0" tl="center" linkIndex="8" dir="r" state="o"/>
    <connection from="s2c" to="c2n" fromLane="1" toLane="1" via=":center_9_0" tl="center" linkIndex="9" dir="s" state="o"/>
    <connection from="s2c" to="c2n" fromLane="2" toLane="2" via=":center_9_1" tl="center" linkIndex="10" dir="s" state="o"/>
    <connection from="s2c" to="c2w" fromLane="3" toLane="3" via=":center_11_0" tl="center" linkIndex="11" dir="l" state="o"/>
    <connection from="w2c" to="c2s" fromLane="1" toLane="1" via=":center_12_0" tl="center" linkIndex="12" dir="r" state="o"/>
    <connection from="w2c" to="c2e" fromLane="1" toLane="1" via=":center_13_0" tl="center" linkIndex="13" dir="s" state="o"/>
    <connection from="w2c" to="c2e" fromLane="2" toLane="2" via=":center_13_1" tl="center" linkIndex="14" dir="s" state="o"/>
    <connection from="w2c" to="c2n" fromLane="3" toLane="3" via=":center_15_0" tl="center" linkIndex="15" dir="l" state="o"/>

    <connection from=":center_0" to="c2w" fromLane="0" toLane="1" via=":center_16_0" dir="r" state="m"/>
    <connection from=":center_16" to="c2w" fromLane="0" toLane="1" dir="r" state="M"/>
    <connection from=":center_1" to="c2s" fromLane="0" toLane="1" dir="s" state="M"/>
    <connection from=":center_1" to="c2s" fromLane="1" toLane="2" dir="s" state="M"/>
    <connection from=":center_3" to="c2e" fromLane="0" toLane="3" via=":center_17_0" dir="l" state="m"/>
    <connection from=":center_17" to="c2e" fromLane="0" toLane="3" dir="l" state="M"/>
    <connection from=":center_4" to="c2n" fromLane="0" toLane="1" via=":center_18_0" dir="r" state="m"/>
    <connection from=":center_18" to="c2n" fromLane="0" toLane="1" dir="r" state="M"/>
    <connection from=":center_5" to="c2w" fromLane="0" toLane="1" dir="s" state="M"/>
    <connection from=":center_5" to="c2w" fromLane="1" toLane="2" dir="s" state="M"/>
    <connection from=":center_7" to="c2s" fromLane="0" toLane="3" via=":center_19_0" dir="l" state="m"/>
    <connection from=":center_19" to="c2s" fromLane="0" toLane="3" dir="l" state="M"/>
    <connection from=":center_8" to="c2e" fromLane="0" toLane="1" via=":center_20_0" dir="r" state="m"/>
    <connection from=":center_20" to="c2e" fromLane="0" toLane="1" dir="r" state="M"/>
    <connection from=":center_9" to="c2n" fromLane="0" toLane="1" dir="s" state="M"/>
    <connection from=":center_9" to="c2n" fromLane="1" toLane="2" dir="s" state="M"/>
    <connection from=":center_11" to="c2w" fromLane="0" toLane="3" via=":center_21_0" dir="l" state="m"/>
    <connection from=":center_21" to="c2w" fromLane="0" toLane="3" dir="l" state="M"/>
    <connection from=":center_12" to="c2s" fromLane="0" toLane="1" via=":center_22_0" dir="r" state="m"/>
    <connection from=":center_22" to="c2s" fromLane="0" toLane="1" dir="r" state="M"/>
    <connection from=":center_13" to="c2e" fromLane="0" toLane="1" dir="s" state="M"/>
    <connection from=":center_13" to="c2e" fromLane="1" toLane="2" dir="s" state="M"/>
    <connection from=":center_15" to="c2n" fromLane="0" toLane="3" via=":center_23_0" dir="l" state="m"/>
    <connection from=":center_23" to="c2n" fromLane="0" toLane="3" dir="l" state="M"/>

    <connection from=":center_c0" to=":center_w0" fromLane="0" toLane="0" dir="s" state="M"/>
    <connection from=":center_c1" to=":center_w1" fromLane="0" toLane="0" dir="s" state="M"/>
    <connection from=":center_c2" to=":center_w2" fromLane="0" toLane="0" dir="s" state="M"/>
    <connection from=":center_c3" to=":center_w3" fromLane="0" toLane="0" dir="s" state="M"/>
    <connection from=":center_w0" to=":center_c3" fromLane="0" toLane="0" tl="center" linkIndex="19" dir="s" state="M"/>
    <connection from=":center_w0" to="c2w" fromLane="0" toLane="0" dir="s" state="M"/>
    <connection from="n2c" to=":center_w0" fromLane="0" toLane="0" dir="s" state="M"/>
    <connection from=":center_w1" to=":center_c0" fromLane="0" toLane="0" tl="center" linkIndex="16" dir="s" state="M"/>
    <connection from=":center_w1" to="c2n" fromLane="0" toLane="0" dir="s" state="M"/>
    <connection from="e2c" to=":center_w1" fromLane="0" toLane="0" dir="s" state="M"/>
    <connection from=":center_w2" to=":center_c1" fromLane="0" toLane="0" tl="center" linkIndex="17" dir="s" state="M"/>
    <connection from=":center_w2" to="c2e" fromLane="0" toLane="0" dir="s" state="M"/>
    <connection from="s2c" to=":center_w2" fromLane="0" toLane="0" dir="s" state="M"/>
    <connection from=":center_w3" to=":center_c2" fromLane="0" toLane="0" tl="center" linkIndex="18" dir="s" state="M"/>
    <connection from=":center_w3" to="c2s" fromLane="0" toLane="0" dir="s" state="M"/>
    <connection from="w2c" to=":center_w3" fromLane="0" toLane="0" dir="s" state="M"/>
    <connection from=":east_w0" to="e2c" fromLane="0" toLane="0" dir="s" state="M"/>
    <connection from="c2e" to=":east_w0" fromLane="0" toLane="0" dir="s" state="M"/>
    <connection from=":north_w0" to="n2c" fromLane="0" toLane="0" dir="s" state="M"/>
    <connection from="c2n" to=":north_w0" fromLane="0" toLane="0" dir="s" state="M"/>
    <connection from=":south_w0" to="s2c" fromLane="0" toLane="0" dir="s" state="M"/>
    <connection from="c2s" to=":south_w0" fromLane="0" toLane="0" dir="s" state="M"/>
    <connection from=":west_w0" to="w2c" fromLane="0" toLane="0" dir="s" state="M"/>
    <connection from="c2w" to=":west_w0" fromLane="0" toLane="0" dir="s" state="M"/>
</net>
