<?xml version="1.0" encoding="UTF-8"?>

<!-- generated on 06/15/20 19:25:04 by Eclipse SUMO netedit Version 1.6.0
<configuration xmlns:xsi="http://www.w3.org/2001/XMLSchema-instance" xsi:noNamespaceSchemaLocation="http://sumo.dlr.de/xsd/netconvertConfiguration.xsd">

    <input>
        <sumo-net-file value="C:\Users\guan\Desktop\test\bishe\03\03.net.xml"/>
    </input>

    <output>
        <output-file value="C:\Users\guan\Desktop\test\bishe\03\03.net.xml"/>
        <plain-output-prefix value="C:\Users\guan\Desktop\test\bishe\03\03"/>
    </output>

    <processing>
        <geometry.min-radius.fix.railways value="false"/>
        <geometry.max-grade.fix value="false"/>
        <offset.disable-normalization value="true"/>
        <lefthand value="false"/>
    </processing>

    <junctions>
        <no-turnarounds value="true"/>
        <junctions.corner-detail value="5"/>
        <junctions.limit-turn-speed value="5.5"/>
        <rectangular-lane-cut value="false"/>
    </junctions>

    <pedestrian>
        <walkingareas value="false"/>
    </pedestrian>

    <netedit>
        <route-files value="C:\Users\guan\Desktop\test\bishe\03\03.rou.xml"/>
    </netedit>

    <report>
        <aggregate-warnings value="5"/>
    </report>

</configuration>
-->

<connections version="1.6" xmlns:xsi="http://www.w3.org/2001/XMLSchema-instance" xsi:noNamespaceSchemaLocation="http://sumo.dlr.de/xsd/connections_file.xsd">
    <connection from="1" to="2" fromLane="0" toLane="1"/>
    <connection from="1" to="2" fromLane="1" toLane="2"/>
    <connection from="1" to="2" fromLane="2" toLane="3"/>

    <connection from="10" to="11" fromLane="1" toLane="0"/>
    <connection from="10" to="11" fromLane="2" toLane="1"/>
    <connection from="10" to="11" fromLane="3" toLane="2"/>

    <connection from="11" to="12" fromLane="0" toLane="0"/>
    <connection from="11" to="12" fromLane="0" toLane="1"/>
    <connection from="11" to="12" fromLane="1" toLane="2"/>
    <connection from="11" to="12" fromLane="2" toLane="3"/>

    <connection from="12" to="20" fromLane="0" toLane="0"/>
    <connection from="12" to="13" fromLane="1" toLane="0"/>
    <connection from="12" to="13" fromLane="2" toLane="1"/>
    <connection from="12" to="13" fromLane="3" toLane="2"/>

    <connection from="15" to="2" fromLane="0" toLane="0"/>

    <connection from="17" to="6" fromLane="0" toLane="0"/>

    <connection from="19" to="10" fromLane="0" toLane="0"/>

    <connection from="2" to="3" fromLane="1" toLane="0"/>
    <connection from="2" to="3" fromLane="2" toLane="1"/>
    <connection from="2" to="3" fromLane="3" toLane="2"/>

    <connection from="3" to="4" fromLane="0" toLane="0"/>
    <connection from="3" to="4" fromLane="0" toLane="1"/>
    <connection from="3" to="4" fromLane="1" toLane="2"/>
    <connection from="3" to="4" fromLane="2" toLane="3"/>

    <connection from="4" to="16" fromLane="0" toLane="0"/>
    <connection from="4" to="5" fromLane="1" toLane="0"/>
    <connection from="4" to="5" fromLane="2" toLane="1"/>
    <connection from="4" to="5" fromLane="3" toLane="2"/>

    <connection from="5" to="6" fromLane="0" toLane="1"/>
    <connection from="5" to="6" fromLane="1" toLane="2"/>
    <connection from="5" to="6" fromLane="2" toLane="3"/>

    <connection from="6" to="7" fromLane="1" toLane="0"/>
    <connection from="6" to="7" fromLane="2" toLane="1"/>
    <connection from="6" to="7" fromLane="3" toLane="2"/>

    <connection from="7" to="8" fromLane="0" toLane="0"/>
    <connection from="7" to="8" fromLane="0" toLane="1"/>
    <connection from="7" to="8" fromLane="1" toLane="2"/>
    <connection from="7" to="8" fromLane="2" toLane="3"/>

    <connection from="8" to="18" fromLane="0" toLane="0"/>
    <connection from="8" to="9" fromLane="1" toLane="0"/>
    <connection from="8" to="9" fromLane="2" toLane="1"/>
    <connection from="8" to="9" fromLane="3" toLane="2"/>

    <connection from="9" to="10" fromLane="0" toLane="1"/>
    <connection from="9" to="10" fromLane="1" toLane="2"/>
    <connection from="9" to="10" fromLane="2" toLane="3"/>

</connections>
