<?xml version="1.0" encoding="UTF-8"?>

<!-- generated on 06/15/20 19:25:04 by Eclipse SUMO netedit Version 1.6.0
<configuration xmlns:xsi="http://www.w3.org/2001/XMLSchema-instance" xsi:noNamespaceSchemaLocation="http://sumo.dlr.de/xsd/netconvertConfiguration.xsd">

    <input>
        <sumo-net-file value="C:\Users\guan\Desktop\test\bishe\03\03.net.xml"/>
    </input>

    <output>
        <output-file value="C:\Users\guan\Desktop\test\bishe\03\03.net.xml"/>
        <plain-output-prefix value="C:\Users\guan\Desktop\test\bishe\03\03"/>
    </output>

    <processing>
        <geometry.min-radius.fix.railways value="false"/>
        <geometry.max-grade.fix value="false"/>
        <offset.disable-normalization value="true"/>
        <lefthand value="false"/>
    </processing>

    <junctions>
        <no-turnarounds value="true"/>
        <junctions.corner-detail value="5"/>
        <junctions.limit-turn-speed value="5.5"/>
        <rectangular-lane-cut value="false"/>
    </junctions>

    <pedestrian>
        <walkingareas value="false"/>
    </pedestrian>

    <netedit>
        <route-files value="C:\Users\guan\Desktop\test\bishe\03\03.rou.xml"/>
    </netedit>

    <report>
        <aggregate-warnings value="5"/>
    </report>

</configuration>
-->

<nodes version="1.6" xmlns:xsi="http://www.w3.org/2001/XMLSchema-instance" xsi:noNamespaceSchemaLocation="http://sumo.dlr.de/xsd/nodes_file.xsd">
    <location netOffset="0.00,0.00" convBoundary="0.00,-300.00,5000.00,0.00" origBoundary="-10000000000.00,-10000000000.00,10000000000.00,10000000000.00" projParameter="!"/>

    <node id="01" x="0.00" y="0.00" type="dead_end"/>
    <node id="010" x="3600.00" y="0.00" type="priority"/>
    <node id="011" x="3800.00" y="0.00" type="priority"/>
    <node id="012" x="4400.00" y="0.00" type="priority"/>
    <node id="013" x="4600.00" y="0.00" type="priority"/>
    <node id="014" x="5000.00" y="0.00" type="dead_end"/>
    <node id="015" x="200.00" y="-300.00" type="dead_end"/>
    <node id="016" x="1400.00" y="-300.00" type="dead_end"/>
    <node id="017" x="2200.00" y="-300.00" type="dead_end"/>
    <node id="018" x="3400.00" y="-300.00" type="dead_end"/>
    <node id="019" x="3405.06" y="-300.00" type="dead_end"/>
    <node id="02" x="400.00" y="0.00" type="priority"/>
    <node id="020" x="4800.00" y="-300.00" type="dead_end"/>
    <node id="03" x="600.00" y="0.00" type="priority"/>
    <node id="04" x="1000.00" y="0.00" type="priority"/>
    <node id="05" x="1200.00" y="0.00" type="priority"/>
    <node id="06" x="2400.00" y="0.00" type="priority"/>
    <node id="07" x="2600.00" y="0.00" type="priority"/>
    <node id="08" x="3000.00" y="0.00" type="priority"/>
    <node id="09" x="3200.00" y="0.00" type="priority"/>
</nodes>
