<!--<?xml version="1.0" encoding="UTF-8"?>-->
<routes>
<!--    <vTypeDistribution id="typedist1">-->
<!--    <vType id="CarA" length="5.00"  maxSpeed="22.22" carFollowModel="Krauss" accel="0.4" decel="6" sigma="0.5"  color="yellow" probability="0.8"/>-->
<!--    <vType id="CarB" length="5.00" maxSpeed="22.22" carFollowModel="ACC" accel="0.4" decel="6.0" sigma="0.5"  color="red" probability="0.1"/>-->
<!--    <vType id="CarC" length="5.00"  maxSpeed="22.22" carFollowModel="CACC" accel="0.4" decel="6.0" sigma="0.5"  color="green" probability="0.1"/>-->
<!--&lt;!&ndash;    <vTypeDistribution id="typedist2">&ndash;&gt;-->
<!--&lt;!&ndash;    <vType id="CarD" length="5.00" maxSpeed="22.22" carFollowModel="Krauss" accel="0.4" decel="6.0" sigma="0.5"  color="blue" probability="0.9" />&ndash;&gt;-->
<!--&lt;!&ndash;    <vType id="CarE" length="5.00" maxSpeed="22.22" carFollowModel="ACC" accel="0.4" decel="6.0" sigma="0.5"  color="red" probability="0.1"/>&ndash;&gt;-->
<!--&lt;!&ndash;        <vType id="CarF" length="5.00"  maxSpeed="22.22" carFollowModel="CACC" accel="0.4" decel="6.0" sigma="0.5"  color="green" probability="0.1"/>&ndash;&gt;-->

<!--    </vTypeDistribution>-->
<!--        <flow id="a19" type="typedist1" begin="0.00" departLane="random" departSpeed="max" end="5100.00" vehsPerHour="1000.00">-->
<!--        <route edges="L2 L1 L1.2 " />-->
<!--    </flow>-->

<!--        <flow id="a1" type="typedist1" begin="0.00" departLane="random" departSpeed="max" end="300.00" vehsPerHour="1000.00">-->
<!--        <route edges="L0 L1 L1.2" />-->
<!--    </flow>-->

<!--        <flow id="a2" type="typedist1" begin="300.00" departLane="random" departSpeed="max" end="600.00" vehsPerHour="1500.00">-->
<!--        <route edges="L0 L1 L1.2" />-->
<!--    </flow>-->

<!--        <flow id="a3" type="typedist1" begin="600.00" departLane="random" departSpeed="max" end="900.00" vehsPerHour="2000.00">-->
<!--        <route edges="L0 L1 L1.2" />-->
<!--    </flow>-->

<!--        <flow id="a4" type="typedist1" begin="900.00" departLane="random" departSpeed="max" end="1200.00" vehsPerHour="2500.00">-->
<!--        <route edges="L0 L1 L1.2" />-->
<!--    </flow>-->

<!--        <flow id="a5" type="typedist1" begin="1200.00" departLane="random" departSpeed="max" end="1500.00" vehsPerHour="3000.00">-->
<!--        <route edges="L0 L1 L1.2" />-->
<!--    </flow>-->

<!--        <flow id="a6" type="typedist1" begin="1500.00" departLane="random" departSpeed="max" end="1800.00" vehsPerHour="3500.00">-->
<!--        <route edges="L0 L1 L1.2" />-->
<!--    </flow>-->

<!--        <flow id="a7" type="typedist1" begin="1800.00" departLane="random" departSpeed="max" end="2100.00" vehsPerHour="4000.00">-->
<!--        <route edges="L0 L1 L1.2" />-->
<!--    </flow>-->

<!--        <flow id="a8" type="typedist1" begin="2100.00" departLane="random" departSpeed="max" end="2400.00" vehsPerHour="4500.00">-->
<!--        <route edges="L0 L1 L1.2" />-->
<!--    </flow>-->

<!--        <flow id="a9" type="typedist1" begin="2400.00" departLane="random" departSpeed="max" end="2700.00" vehsPerHour="5000.00">-->
<!--        <route edges="L0 L1 L1.2" />-->
<!--    </flow>-->

<!--        <flow id="a10" type="typedist1" begin="2700.00" departLane="random" departSpeed="max" end="3000.00" vehsPerHour="4500.00">-->
<!--        <route edges="L0 L1 L1.2" />-->
<!--    </flow>-->

<!--        <flow id="a11" type="typedist1" begin="3000.00" departLane="random" departSpeed="max" end="3300.00" vehsPerHour="4000.00">-->
<!--        <route edges="L0 L1 L1.2" />-->
<!--    </flow>-->

<!--        <flow id="a12" type="typedist1" begin="3300.00" departLane="random" departSpeed="max" end="3600.00" vehsPerHour="3500.00">-->
<!--        <route edges="L0 L1 L1.2" />-->
<!--    </flow>-->

<!--        <flow id="a13" type="typedist1" begin="3600.00" departLane="random" departSpeed="max" end="3900.00" vehsPerHour="3000.00">-->
<!--        <route edges="L0 L1 L1.2" />-->
<!--    </flow>-->

<!--        <flow id="a14" type="typedist1" begin="3900.00" departLane="random" departSpeed="max" end="4200.00" vehsPerHour="2500.00">-->
<!--        <route edges="L0 L1 L1.2" />-->
<!--    </flow>-->

<!--        <flow id="a15" type="typedist1" begin="4200.00" departLane="random" departSpeed="max" end="4500.00" vehsPerHour="2000.00">-->
<!--        <route edges="L0 L1 L1.2" />-->
<!--    </flow>-->

<!--        <flow id="a16" type="typedist1" begin="4500.00" departLane="random" departSpeed="max" end="4800.00" vehsPerHour="1500.00">-->
<!--        <route edges="L0 L1 L1.2" />-->
<!--    </flow>-->

<!--        <flow id="a17" type="typedist1" begin="4800.00" departLane="random" departSpeed="max" end="5100.00" vehsPerHour="1000.00">-->
<!--        <route edges="L0 L1 L1.2" />-->
<!--    </flow>-->
    <vType id="type1" accel="0.8" decel="4.5" sigma="0.5" length="5" maxSpeed="70"/>
    <vehicle id="0" type="type1" depart="0" color="1,0,0">
      <route edges="L0 L1 L1.2"/>
    </vehicle>
    <vehicle id="1" type="type1" depart="0" color="1,0,0">
      <route edges="L0 L1 L1.2"/>
    </vehicle>

<!--    </vTypeDistribution>-->
<!--        <flow id="a5" type="typedist2" begin="0.00" departLane="random" departSpeed="random" color="blue" end="3600.00" vehsPerHour="1000.00" >-->
<!--        <route edges="L2 L1 " />-->
<!--    </flow>-->

</routes>
