<?xml version="1.0" encoding="UTF-8"?>

<!-- generated on 06/15/20 10:54:20 by Eclipse SUMO GUI Version 1.6.0
-->

<configuration xmlns:xsi="http://www.w3.org/2001/XMLSchema-instance" xsi:noNamespaceSchemaLocation="http://sumo.dlr.de/xsd/sumoConfiguration.xsd">

    <input>
        <net-file value="net1019.net.xml"/>
        <route-files value="1019.rou.xml"/>
        <additional-files value="add.add.xml"/>
    </input>
</configuration>
