<?xml version="1.0" encoding="UTF-8"?>

<!-- generated on 11/15/21 19:10:07 by Eclipse SUMO netedit Version 1.8.0
<configuration xmlns:xsi="http://www.w3.org/2001/XMLSchema-instance" xsi:noNamespaceSchemaLocation="http://sumo.dlr.de/xsd/netconvertConfiguration.xsd">

    <input>
        <sumo-net-file value="D:\kth\kth\VSL_MF\VSL_MF\sumo_file\VSL\net1019.net.xml"/>
    </input>

    <output>
        <output-file value="D:\kth\kth\VSL_MF\VSL_MF\sumo_file\VSL\net1019.net.xml"/>
    </output>

    <processing>
        <geometry.min-radius.fix.railways value="false"/>
        <geometry.max-grade.fix value="false"/>
        <offset.disable-normalization value="true"/>
        <lefthand value="false"/>
    </processing>

    <junctions>
        <no-turnarounds value="true"/>
        <junctions.corner-detail value="5"/>
        <junctions.limit-turn-speed value="5.5"/>
        <rectangular-lane-cut value="false"/>
    </junctions>

    <pedestrian>
        <walkingareas value="false"/>
    </pedestrian>

    <netedit>
        <additional-files value="D:\kth\kth\VSL_MF\VSL_MF\sumo_file\VSL\add.add.xml"/>
    </netedit>

    <report>
        <aggregate-warnings value="5"/>
    </report>

</configuration>
-->

<additional xmlns:xsi="http://www.w3.org/2001/XMLSchema-instance" xsi:noNamespaceSchemaLocation="http://sumo.dlr.de/xsd/additional_file.xsd">
    <e1Detector id="det_L0_0" lane="L0_0" pos="500.00" freq="100.00" file="e1Detector_L0_0.xml"/>
    <e1Detector id="det_L0_1" lane="L0_1" pos="500.00" freq="100.00" file="e1Detector_L0_1.xml"/>
    <e1Detector id="det_L1_0" lane="L1.2_0" pos="271.84" freq="100.00" file="e1Detector_L1_0.xml"/>
    <e1Detector id="det_L1_1" lane="L1.2_1" pos="271.84" freq="100.00" file="e1Detector_L1_1.xml"/>
</additional>
